           6

 C      -1.000     0.000     0.000
 C       3.000     0.000     0.000
 C       6.000     0.000     0.000
 C       9.000     0.000     0.000
 C      12.000     0.000     0.000
 C      15.000     0.000     0.000
           6

 C      -0.637     0.000     0.000
 C       2.839     0.000     0.000
 C       6.111     0.000     0.000
 C       9.093     0.000     0.000
 C      11.677     0.000     0.000
 C      14.918     0.000     0.000
           6

 C      -0.127     0.000     0.000
 C       2.935     0.000     0.000
 C       6.062     0.000     0.000
 C       9.053     0.000     0.000
 C      11.535     0.000     0.000
 C      14.541     0.000     0.000
           6

 C       0.056     0.000     0.000
 C       3.142     0.000     0.000
 C       5.785     0.000     0.000
 C       8.901     0.000     0.000
 C      11.854     0.000     0.000
 C      14.262     0.000     0.000
           6

 C       0.095     0.000     0.000
 C       2.670     0.000     0.000
 C       5.702     0.000     0.000
 C       9.006     0.000     0.000
 C      11.893     0.000     0.000
 C      14.634     0.000     0.000
           6

 C      -0.107     0.000     0.000
 C       2.380     0.000     0.000
 C       5.612     0.000     0.000
 C       8.968     0.000     0.000
 C      12.052     0.000     0.000
 C      15.094     0.000     0.000
           6

 C      -0.291     0.000     0.000
 C       2.712     0.000     0.000
 C       5.513     0.000     0.000
 C       8.631     0.000     0.000
 C      12.272     0.000     0.000
 C      15.163     0.000     0.000
           6

 C       0.022     0.000     0.000
 C       2.839     0.000     0.000
 C       5.769     0.000     0.000
 C       8.455     0.000     0.000
 C      11.774     0.000     0.000
 C      15.141     0.000     0.000
           6

 C       0.295     0.000     0.000
 C       3.004     0.000     0.000
 C       5.968     0.000     0.000
 C       8.333     0.000     0.000
 C      11.394     0.000     0.000
 C      15.005     0.000     0.000
           6

 C       0.096     0.000     0.000
 C       3.249     0.000     0.000
 C       5.828     0.000     0.000
 C       8.237     0.000     0.000
 C      11.716     0.000     0.000
 C      14.874     0.000     0.000
           6

 C      -0.117     0.000     0.000
 C       2.789     0.000     0.000
 C       5.776     0.000     0.000
 C       8.558     0.000     0.000
 C      11.875     0.000     0.000
 C      15.119     0.000     0.000
           6

 C      -0.242     0.000     0.000
 C       2.368     0.000     0.000
 C       5.729     0.000     0.000
 C       8.922     0.000     0.000
 C      12.003     0.000     0.000
 C      15.221     0.000     0.000
           6

 C      -0.285     0.000     0.000
 C       2.669     0.000     0.000
 C       5.598     0.000     0.000
 C       8.966     0.000     0.000
 C      12.270     0.000     0.000
 C      14.783     0.000     0.000
           6

 C       0.006     0.000     0.000
 C       2.812     0.000     0.000
 C       5.797     0.000     0.000
 C       9.069     0.000     0.000
 C      11.903     0.000     0.000
 C      14.413     0.000     0.000
           6

 C       0.105     0.000     0.000
 C       2.852     0.000     0.000
 C       6.058     0.000     0.000
 C       9.146     0.000     0.000
 C      11.499     0.000     0.000
 C      14.340     0.000     0.000
           6

 C      -0.392     0.000     0.000
 C       3.132     0.000     0.000
 C       6.016     0.000     0.000
 C       9.007     0.000     0.000
 C      11.774     0.000     0.000
 C      14.463     0.000     0.000
           6

 C      -0.800     0.000     0.000
 C       2.932     0.000     0.000
 C       6.061     0.000     0.000
 C       9.054     0.000     0.000
 C      11.833     0.000     0.000
 C      14.920     0.000     0.000
           6

 C      -0.794     0.000     0.000
 C       2.674     0.000     0.000
 C       6.138     0.000     0.000
 C       9.135     0.000     0.000
 C      11.664     0.000     0.000
 C      15.182     0.000     0.000
           6

 C      -0.558     0.000     0.000
 C       3.048     0.000     0.000
 C       5.956     0.000     0.000
 C       8.928     0.000     0.000
 C      11.819     0.000     0.000
 C      14.808     0.000     0.000
           6

 C      -0.027     0.000     0.000
 C       3.117     0.000     0.000
 C       5.868     0.000     0.000
 C       8.868     0.000     0.000
 C      11.696     0.000     0.000
 C      14.478     0.000     0.000
           6

 C       0.334     0.000     0.000
 C       2.766     0.000     0.000
 C       5.813     0.000     0.000
 C       8.966     0.000     0.000
 C      11.567     0.000     0.000
 C      14.554     0.000     0.000
           6

 C       0.071     0.000     0.000
 C       2.734     0.000     0.000
 C       5.506     0.000     0.000
 C       8.839     0.000     0.000
 C      12.089     0.000     0.000
 C      14.760     0.000     0.000
           6

 C      -0.172     0.000     0.000
 C       2.573     0.000     0.000
 C       5.424     0.000     0.000
 C       8.754     0.000     0.000
 C      12.284     0.000     0.000
 C      15.137     0.000     0.000
           6

 C      -0.050     0.000     0.000
 C       2.441     0.000     0.000
 C       5.659     0.000     0.000
 C       8.691     0.000     0.000
 C      11.896     0.000     0.000
 C      15.364     0.000     0.000
           6

 C       0.052     0.000     0.000
 C       2.996     0.000     0.000
 C       5.761     0.000     0.000
 C       8.355     0.000     0.000
 C      11.780     0.000     0.000
 C      15.055     0.000     0.000
           6

 C       0.155     0.000     0.000
 C       3.276     0.000     0.000
 C       5.890     0.000     0.000
 C       8.230     0.000     0.000
 C      11.621     0.000     0.000
 C      14.828     0.000     0.000
           6

 C       0.129     0.000     0.000
 C       2.887     0.000     0.000
 C       6.028     0.000     0.000
 C       8.498     0.000     0.000
 C      11.460     0.000     0.000
 C      14.997     0.000     0.000
           6

 C      -0.289     0.000     0.000
 C       2.746     0.000     0.000
 C       5.817     0.000     0.000
 C       8.698     0.000     0.000
 C      11.981     0.000     0.000
 C      15.047     0.000     0.000
           6

 C      -0.488     0.000     0.000
 C       2.627     0.000     0.000
 C       5.677     0.000     0.000
 C       8.934     0.000     0.000
 C      12.304     0.000     0.000
 C      14.946     0.000     0.000
           6

 C      -0.181     0.000     0.000
 C       2.429     0.000     0.000
 C       5.856     0.000     0.000
 C       9.223     0.000     0.000
 C      11.936     0.000     0.000
 C      14.736     0.000     0.000
           6

 C      -0.022     0.000     0.000
 C       2.856     0.000     0.000
 C       5.917     0.000     0.000
 C       9.152     0.000     0.000
 C      11.820     0.000     0.000
 C      14.277     0.000     0.000
           6

 C      -0.138     0.000     0.000
 C       3.175     0.000     0.000
 C       5.973     0.000     0.000
 C       9.035     0.000     0.000
 C      11.784     0.000     0.000
 C      14.170     0.000     0.000
           6

 C      -0.372     0.000     0.000
 C       2.847     0.000     0.000
 C       6.152     0.000     0.000
 C       9.145     0.000     0.000
 C      11.544     0.000     0.000
 C      14.684     0.000     0.000
           6

 C      -0.793     0.000     0.000
 C       2.837     0.000     0.000
 C       6.054     0.000     0.000
 C       9.054     0.000     0.000
 C      11.788     0.000     0.000
 C      15.060     0.000     0.000
           6

 C      -0.839     0.000     0.000
 C       3.010     0.000     0.000
 C       5.901     0.000     0.000
 C       8.891     0.000     0.000
 C      11.970     0.000     0.000
 C      15.067     0.000     0.000
           6

 C      -0.238     0.000     0.000
 C       2.860     0.000     0.000
 C       5.963     0.000     0.000
 C       8.925     0.000     0.000
 C      11.564     0.000     0.000
 C      14.927     0.000     0.000
           6

 C       0.218     0.000     0.000
 C       2.996     0.000     0.000
 C       5.799     0.000     0.000
 C       8.815     0.000     0.000
 C      11.579     0.000     0.000
 C      14.592     0.000     0.000
           6

 C       0.254     0.000     0.000
 C       3.042     0.000     0.000
 C       5.516     0.000     0.000
 C       8.707     0.000     0.000
 C      11.952     0.000     0.000
 C      14.529     0.000     0.000
           6

 C       0.173     0.000     0.000
 C       2.492     0.000     0.000
 C       5.498     0.000     0.000
 C       8.852     0.000     0.000
 C      11.969     0.000     0.000
 C      15.016     0.000     0.000
           6

 C      -0.078     0.000     0.000
 C       2.405     0.000     0.000
 C       5.478     0.000     0.000
 C       8.767     0.000     0.000
 C      12.122     0.000     0.000
 C      15.307     0.000     0.000
