356

C     1.167349    0.529664   -0.129820
N     2.381263   -0.010599    0.096964
C     2.285280   -1.388539    0.015980
C     0.991333   -1.681957   -0.266160
N     0.310179   -0.481869   -0.358373
C    -1.141726   -0.359083   -0.618143
C    -1.979089   -0.524954    0.654033
C    -3.490752   -0.465371    0.383428
C    -3.999544    0.891171   -0.112919
H    -3.606436    1.156129   -1.099174
H    -5.087775    0.884875   -0.201373
H    -3.736868    1.695699    0.581494
H    -3.765146   -1.251535   -0.329885
H    -4.002003   -0.721643    1.315888
H    -1.729626   -1.484901    1.118279
H    -1.701321    0.250560    1.377784
H    -1.306807    0.606934   -1.093427
H    -1.391841   -1.123621   -1.356233
H     0.500793   -2.629496   -0.414070
H     3.138501   -2.029712    0.160832
C     3.616776    0.731740    0.381116
H     3.532667    1.260274    1.330468
H     4.434800    0.018642    0.447026
H     3.828854    1.436254   -0.421962
C     0.845058    1.981337   -0.156338
H     0.765757    2.348385   -1.184534
H    -0.100751    2.185163    0.347053
H     1.619001    2.561218    0.344638
X    0.141   -0.990    0.000
X   -0.179   -0.970    0.164
X    0.027   -0.950   -0.311
X    0.224   -0.930    0.292
X   -0.408   -0.910   -0.072
X    0.385   -0.890   -0.245
X   -0.128   -0.870    0.476
X   -0.243   -0.850   -0.467
X    0.524   -0.830    0.191
X   -0.542   -0.810    0.224
X    0.260   -0.790   -0.555
X    0.191   -0.770    0.609
X   -0.572   -0.750   -0.332
X    0.668   -0.730   -0.147
X   -0.405   -0.710    0.576
X   -0.093   -0.690   -0.718
X    0.568   -0.670    0.478
X   -0.759   -0.650    0.031
X    0.550   -0.630   -0.548
X   -0.037   -0.610    0.792
X   -0.517   -0.590   -0.620
X    0.814   -0.570    0.110
X   -0.686   -0.550    0.477
X    0.186   -0.530   -0.827
X    0.428   -0.510    0.746
X   -0.830   -0.490   -0.265
X    0.801   -0.470   -0.370
X   -0.345   -0.450    0.824
X   -0.306   -0.430   -0.850
X    0.807   -0.410    0.424
X   -0.890   -0.390    0.235
X    0.502   -0.370   -0.781
X    0.159   -0.350    0.923
X   -0.746   -0.330   -0.578
X    0.947   -0.310   -0.078
X   -0.650   -0.290    0.703
X    0.005   -0.270   -0.963
X    0.651   -0.250    0.717
X   -0.969   -0.230   -0.090
X    0.779   -0.210   -0.591
X   -0.176   -0.190    0.966
X   -0.525   -0.170   -0.834
X    0.954   -0.150    0.261
X   -0.882   -0.130    0.453
X    0.346   -0.110   -0.932
X    0.376   -0.090    0.922
X   -0.901   -0.070   -0.427
X    0.954   -0.050   -0.294
X   -0.505   -0.030    0.862
X   -0.210   -0.010   -0.978
X    0.815    0.010    0.579
X   -0.992    0.030    0.124
X    0.647    0.050   -0.761
X    0.036    0.070    0.997
X   -0.699    0.090   -0.709
X    0.993    0.110    0.051
X   -0.764    0.130    0.632
X    0.137    0.150   -0.979
X    0.559    0.170    0.812
X   -0.957    0.190   -0.220
X    0.851    0.210   -0.482
X   -0.300    0.230    0.926
X   -0.402    0.250   -0.881
X    0.886    0.270    0.376
X   -0.902    0.290    0.320
X    0.446    0.310   -0.839
X    0.236    0.330    0.914
X   -0.785    0.350   -0.510
X    0.916    0.370   -0.153
X   -0.567    0.390    0.725
X   -0.071    0.410   -0.909
X    0.660    0.430    0.616
X   -0.893    0.450   -0.009
X    0.657    0.470   -0.590
X   -0.085    0.490    0.868
X   -0.517    0.510   -0.688
X    0.834    0.530    0.156
X   -0.709    0.550    0.441
X    0.221    0.570   -0.791
X    0.365    0.590    0.720
X   -0.742    0.610   -0.279
X    0.721    0.630   -0.289
X   -0.329    0.650    0.685
X   -0.215    0.670   -0.710
X    0.623    0.690    0.369
X   -0.689    0.710    0.144
X    0.399    0.730   -0.555
X    0.079    0.750    0.657
X   -0.484    0.770   -0.416
X    0.613    0.790   -0.019
X   -0.420    0.810    0.410
X    0.031    0.830   -0.557
X    0.334    0.850    0.408
X   -0.488    0.870   -0.071
X    0.377    0.890   -0.257
X   -0.095    0.910    0.404
X   -0.180    0.930   -0.321
X    0.297    0.950    0.098
X   -0.222    0.970    0.100
X    0.056    0.990   -0.130
[kjeong23@submit-3 math]$ ^C
[kjeong23@submit-3 math]$ ls
ACF.py  AMsol.py  corr_energy.dat  cosine_data_ex.dat  expfit_acf.py  Fsqt_iso.py  gaussian_fit.py  NRsol.py  PD.py  Pulay_fail.py  sphere_generation_v01.py  temp_energy.txt  test2.py  test3.py  test_LS.py  test.py
[kjeong23@submit-3 math]$ cd ..
[kjeong23@submit-3 data_process]$ ls
gemini_pmf  math  micelles  sapt_dimer
[kjeong23@submit-3 data_process]$ cd sapt_dimer/
[kjeong23@submit-3 sapt_dimer]$ ls
bmim2.xyz          dcd_dimer_v03.py      disp_rescale_v02.py             hbond_lifetime_minor_v02.py  mdtraj_test_20dimers.xyz  rdf_test_v01.py          spatd_hbond_v01.py  test_spatd.dat            test_top.py
bmim.xyz           dcd_to_xtc.py         eq_npt.pdb                      hbond_lifetime_v01.py        msd_v011.py               rotcorr_general_v01.py   test_eq_npt.dcd     test_spatd_homo.dat       urea_dcd_dimer_v01.py
dcd_cat_split.py   disp_rescale_v01.py   fit_NCCO_pe.py                  hbond_lifetime_v02.py        msd_v012.py               settings_hminor.txt      test_min.pdb        test_spatd_homo_past.dat
dcd_dimer_v021.py  disp_rescale_v021.py  generate_grid_points_efield.py  hbondlist_acf_v02.py         msd_v01.py                settings_spatd_homo.txt  test_rdf_HCl.dat    test_spatd_long.dat
dcd_dimer_v02.py   disp_rescale_v022.py  gromacs_gr_test_HCl.xvg         index.ndx                    psi4_output_collect.py    settings_spatd.txt       test_read_dcd.py    test_top2.py
[kjeong23@submit-3 sapt_dimer]$ vi generate_grid_points_efield.py
[kjeong23@submit-3 sapt_dimer]$ ./generate_grid_points_efield.py -i bmim2.xyz -n 10
: No such file or directory
[kjeong23@submit-3 sapt_dimer]$ python3 generate_grid_points_efield.py -i bmim2.xyz -n 10
 input arguments: Namespace(args=[], input='bmim2.xyz', n_xyz=10, output='monomer_h_', probe_radius=0.12)
X    3.549   -3.999    0.016
X    2.505   -2.839   -2.486
X    3.968   -2.259    2.211
X    4.720   -1.099   -1.533
X    1.567   -0.519    2.688
X    4.231    0.641    0.726
X    1.117    1.221    0.498
X    2.255   -4.292   -0.266
X   -0.536   -3.712    1.133
X    1.211   -3.132   -2.768
X   -1.850   -1.972   -0.769
X    0.273   -0.812    2.405
X   -0.166   -0.232   -2.495
X   -0.177    0.928    0.216
X   -1.138   -2.407    0.968
X    0.518   -1.857   -2.731
X   -2.384   -0.757   -0.835
X   -0.371    0.343    2.175
X   -0.788    0.893   -2.472
X   -0.798    1.993    0.099
X   -2.669   -2.389    0.781
X   -0.922   -1.809   -3.120
X   -3.983   -0.649   -1.121
X   -1.860    0.511    2.053
X   -2.299    1.091   -2.847
X    0.804    1.671    0.092
X   -2.310    2.251   -0.136
X   -0.715   -3.135    0.654
X   -3.506   -2.555    2.053
X   -1.760   -1.975   -1.848
X   -0.296   -1.395    2.849
X   -4.820   -0.815    0.151
X   -2.697    0.345    3.326
X   -3.137    0.925   -1.575
X   -0.034    1.505    1.364
X   -3.148    2.085    1.136
X   -2.227   -3.075    0.383
X   -5.018   -2.495    1.782
X   -3.271   -1.915   -2.118
X   -1.808   -1.335    2.579
X   -6.332   -0.755   -0.119
X   -4.209    0.405    3.055
X   -4.648    0.985   -1.845
X   -1.545    1.565    1.094
X   -4.659    2.145    0.866
X   -2.735   -1.719   -0.113
X   -5.527   -1.139    1.286
X   -3.780   -0.559   -2.615
X   -2.316    0.021    2.083
X   -6.841    0.601   -0.616
X   -1.565    1.181   -1.662
X   -4.718    1.761    2.559
X   -5.157    2.341   -2.342
X   -2.054    2.921    0.598
X   -5.168    3.501    0.369
X   -2.560   -1.004   -1.099
X   -4.870   -0.524    0.059
X   -3.425   -0.044   -3.170
X   -2.213    0.436    0.718
X   -5.958    0.916   -1.515
X   -1.592    1.396   -2.381
X   -4.201    1.876    1.112
X   -4.564    2.356   -2.944
X   -1.996    2.836   -0.511
X   -4.573    3.316   -0.700
X   -4.042   -1.275   -0.201
X   -6.352   -0.795    0.956
X   -4.906   -0.315   -2.272
X   -3.695    0.165    1.616
X   -7.439    0.645   -0.617
X   -5.682    1.605    2.010
X   -6.046    2.085   -2.046
X   -3.478    2.565    0.387
X   -6.055    3.045    0.198
X   -2.691   -0.464    0.581
X   -5.001    0.016    1.739
X   -3.555    0.496   -1.489
X   -2.344    0.976    2.398
X   -6.088    1.456    0.166
X   -1.722    1.936   -0.700
X   -4.331    2.416    2.792
X   -4.695    2.896   -1.263
X   -2.127    3.376    1.169
X   -4.704    3.856    0.981
X   -2.719   -3.412   -0.330
X   -5.029   -2.932    0.828
X   -3.583   -2.452   -2.400
X   -2.372   -1.972    1.487
X   -6.117   -1.492   -0.746
X   -1.750   -1.012   -1.612
X   -4.359   -0.532    1.881
X   -4.723   -0.052   -2.174
X   -2.155    0.428    0.258
X   -4.732    0.908    0.069
X   -2.956   -2.882    1.316
X   -5.266   -2.402    2.474
X   -3.820   -1.922   -0.755
X   -2.609   -1.442    3.133
X   -6.353   -0.962    0.900
X   -4.596   -0.002    3.527
X   -4.960    0.478   -0.529
X   -2.392    0.958    1.904
X   -4.969    1.438    1.715
X   -0.683   -3.645    1.118
X   -2.993   -3.165    2.276
X   -1.548   -2.685   -0.952
X   -0.337   -2.205    2.935
X   -4.081   -1.725    0.702
X   -2.324   -0.765    3.329
X   -2.688   -0.285   -0.726
X   -0.120    0.195    1.706
X   -2.697    0.675    1.517
X   -0.655   -1.909    1.378
X   -2.965   -1.429    2.536
X   -1.520   -0.949   -0.693
X   -0.308   -0.469    3.195
X   -4.053    0.011    0.962
X   -2.296    0.971    3.589
X   -2.659    1.451   -0.467
X   -0.091    1.931    1.966
X   -2.668    2.411    1.777
X   -2.571   -1.073    0.064
X   -1.125   -0.593   -3.164
X   -3.658    0.367   -1.509
X    0.708    0.847   -2.375
X   -1.901    1.327    1.118
X   -2.265    1.807   -2.938
X    0.303    2.287   -0.505
X   -2.274    2.767   -0.694
X   -0.346   -3.284   -1.356
X   -2.656   -2.804   -0.198
X   -1.210   -2.324   -3.427
X   -3.743   -1.364   -1.772
X    0.623   -0.884   -2.638
X   -1.986   -0.404    0.855
X   -2.350    0.076   -3.201
X    0.218    0.556   -0.768
X   -2.359    1.036   -0.957
X    1.547   -4.789   -0.414
X   -0.763   -4.309    0.744
X    0.683   -3.829   -2.485
X   -1.851   -2.869   -0.830
X   -0.094   -1.909    1.797
X   -0.457   -1.429   -2.259
X   -0.466   -0.469   -0.015
X    4.185   -4.190    0.161
X    4.531   -2.750    1.978
X    5.153   -1.790   -1.121
X    5.300   -0.138    2.577
X    6.051    1.022   -1.168
X    2.899    1.602    3.053
X    2.459    2.182   -1.848
X    5.562    2.762    1.092
X    2.448    3.342    0.863
X    4.926    0.540    3.147
X    5.548    1.500    0.049
X    2.938    1.980    3.541
X    2.575    2.460   -0.514
X    5.143    2.940    1.918
X    2.566    3.420    1.730
X    5.481   -2.141    0.447
X    5.828   -0.701    2.264
X    6.450    0.259   -0.835
X    3.840    0.739    2.658
X    3.477    1.219   -1.398
X    6.045    1.699    1.035
X    3.468    2.179    0.846
X    4.011    0.236   -2.492
X    5.222    0.716    1.395
X    5.844    1.676   -1.704
X    3.235    2.156    1.789
X    2.871    2.636   -2.266
X    5.439    3.116    0.166
X    2.862    3.596   -0.023
X   -0.682   -0.049    1.243
X    1.065    0.531   -2.658
X    2.528    1.111    2.039
X   -1.996    1.691   -0.659
X    3.280    2.271   -1.705
X    0.127    2.851    2.515
X   -0.312    3.431   -2.385
X    2.790    4.011    0.554
X   -0.323    4.591    0.326
X   -0.498    0.668   -0.027
X    0.947    1.148   -3.255
X    2.159    1.628    0.632
X   -1.586    2.108   -1.600
X    2.781    2.588   -2.466
X    0.171    3.068    1.026
X   -0.192    3.548   -3.029
X    2.376    4.028   -0.597
X   -0.201    4.508   -0.785
X   -1.365    0.505    1.505
X    0.081    0.985   -1.723
X    1.292    1.465    2.164
X   -2.452    1.945   -0.069
X    1.914    2.425   -0.935
X   -0.695    2.905    2.558
X   -1.059    3.385   -1.497
X    1.509    3.865    0.935
X   -1.068    4.345    0.746
X    0.355    0.881    1.502
X    1.801    1.361   -1.726
X    3.012    1.841    2.162
X   -0.732    2.321   -0.071
X    3.634    2.801   -0.937
X    1.025    3.281    2.556
X    0.661    3.761   -1.500
X    3.229    4.241    0.933
X    0.652    4.721    0.744

